43
	Energy:      35.2431520
C         -4.25515        1.49492        0.69689
C         -2.90295        0.86376        0.30137
H         -5.03007        0.70864        0.80943
H         -4.61870        2.21094       -0.06540
H         -4.16931        2.03951        1.65984
C         -3.02761        0.15464       -1.09374
C         -2.34302        0.01010        1.47174
C         -3.18420       -1.18096        1.91610
Cl        -2.21664        0.67482        2.35463
H         -1.32840       -0.35189        1.20035
H         -4.17935       -0.86104        2.28026
Cl        -2.66249       -1.69442        2.75268
H         -3.30353       -1.89780        1.09053
C         -1.93322       -0.88545       -1.38624
Br        -0.92084       -0.43815       -1.32538
H         -2.08275       -1.31166       -2.40293
H         -1.99643       -1.74037       -0.68635
C         -2.97687        1.21461       -2.21621
F         -3.76517        1.98394       -2.10821
H         -3.09927        0.74314       -3.21392
F         -1.98901        1.73000       -2.20217
H         -2.15088        1.67719        0.19726
H         -3.99284       -0.39423       -1.14241
C         -5.93495       -2.59172       -1.28188
C         -6.49526       -1.58080       -2.07299
C         -6.11093       -2.60438        0.11604
H         -5.35379       -3.37542       -1.75207
C         -6.86943       -1.56361        0.72426
C         -7.43196       -0.56383       -0.08786
C         -7.24717       -0.57229       -1.47081
P         -8.01742        0.23394        0.35208
H         -7.69060        0.21362       -2.06979
O         -6.29471       -1.56872       -3.56079
N         -7.13189       -1.43779        2.20721
C         -5.46798       -3.75437        0.85586
H         -4.38044       -3.78146        0.64327
H         -5.58526       -3.73484        1.95052
H         -5.90275       -4.70849        0.49365
H         -6.76555       -2.10613        2.83039
H         -7.66920       -0.68748        2.55010
H         -5.79053       -2.24359       -3.97106
H         -8.07884        0.05917        1.71959
H         -9.29367        0.21099       -0.17238
